Metadata-Version: 2.1
Name: nlmod
Version: 0.5.3
Summary: nlmod module by Artesia
Home-page: https://github.com/ArtesiaWater/nlmod
Author: Artesia
License: MIT
Platform: Windows
Platform: Mac OS-X
Classifier: Development Status :: 4 - Beta
Classifier: Intended Audience :: Science/Research
Classifier: Intended Audience :: Other Audience
Classifier: License :: OSI Approved :: MIT License
Classifier: Programming Language :: Python :: 3
Description-Content-Type: text/markdown
License-File: LICENSE
Requires-Dist: flopy (>=3.3.6)
Requires-Dist: mfpymake
Requires-Dist: xarray (>=0.16.1)
Requires-Dist: rasterio (>=1.1.0)
Requires-Dist: rioxarray
Requires-Dist: affine (>=0.3.1)
Requires-Dist: geopandas
Requires-Dist: owslib (>=0.24.1)
Requires-Dist: hydropandas (>=0.7.1)
Requires-Dist: shapely (>=2.0.0)
Requires-Dist: netcdf4 (>=1.5.7)
Requires-Dist: pyshp (>=2.1.3)
Requires-Dist: rtree (>=0.9.7)
Requires-Dist: matplotlib
Requires-Dist: dask
Requires-Dist: colorama
Provides-Extra: full
Requires-Dist: gdown ; extra == 'full'

# nlmod
<img src="docs/_static/logo_10000_2.png" width="256"/>

[![nlmod](https://github.com/ArtesiaWater/nlmod/actions/workflows/ci.yml/badge.svg?branch=main)](https://github.com/ArtesiaWater/nlmod/actions/workflows/ci.yml)
[![Codacy Badge](https://app.codacy.com/project/badge/Grade/6fadea550ea04ea28b6ccde88fc56f35)](https://www.codacy.com/gh/ArtesiaWater/nlmod/dashboard?utm_source=github.com&amp;utm_medium=referral&amp;utm_content=ArtesiaWater/nlmod&amp;utm_campaign=Badge_Grade)
[![Codacy Badge](https://app.codacy.com/project/badge/Coverage/6fadea550ea04ea28b6ccde88fc56f35)](https://www.codacy.com/gh/ArtesiaWater/nlmod/dashboard?utm_source=github.com&utm_medium=referral&utm_content=ArtesiaWater/nlmod&utm_campaign=Badge_Coverage)
[![PyPI version](https://badge.fury.io/py/nlmod.svg)](https://badge.fury.io/py/nlmod)
[![Documentation Status](https://readthedocs.org/projects/nlmod/badge/?version=stable)](https://nlmod.readthedocs.io/en/stable/?badge=stable)

Python package with functions to process, build and visualise MODFLOW models in the Netherlands. 

The functions in nlmod have four main objectives:
1. Create and adapt the temporal and spatial discretization of a MODFLOW model using an xarray Dataset (`nlmod.dims`).
2. Download and read data from external sources, project this data on the modelgrid and add this data to an xarray Dataset (`nlmod.read`).
3. Use data in an xarray Dataset to build modflow packages using FloPy (`nlmod.gwf` for Modflow 6 and `nlmod.modpath` for Modpath).
4. Visualise modeldata in Python (`nlmod.plot`) or GIS software (`nlmod.gis`).

More information can be found on the documentation-website: https://nlmod.readthedocs.io/.

## Installation

Install the module with pip:

`pip install nlmod`

`nlmod` has many dependencies `xarray`, `flopy`, `rasterio`, `rioxarray`, `owslib`, `hydropandas`, `netcdf4`, `pyshp`, `rtree`, `openpyxl` and `matplotlib`.

When using pip the dependencies are automatically installed. Some dependencies are notoriously hard to install on certain platforms. 
Please see the [dependencies](https://github.com/ArtesiaWater/hydropandas#dependencies) section of the `hydropandas` package for more information on how to install these packages manually. 


## Getting started
If you are using nlmod for the first time you need to download the MODFLOW executables. You can easily download these executables by running this Python code:

	import nlmod
	nlmod.util.download_mfbinaries()

After you've downloaded the executables you can run the Jupyter Notebooks in the examples folder. These notebooks illustrate how you to use the nlmod package. 
